data_image0
_cell_length_a       12.4672
_cell_length_b       12.4672
_cell_length_c       26.4054
_cell_angle_alpha    89.9998
_cell_angle_beta     90.0001
_cell_angle_gamma    90

_symmetry_space_group_name_H-M    "P 1"
_symmetry_int_tables_number       1

loop_
  _symmetry_equiv_pos_as_xyz
  'x, y, z'

loop_
  _atom_site_label
  _atom_site_occupancy
  _atom_site_fract_x
  _atom_site_fract_y
  _atom_site_fract_z
  _atom_site_thermal_displace_type
  _atom_site_B_iso_or_equiv
  _atom_site_type_symbol
  O1       1.0000 0.82562  0.85730  0.05744  Biso   1.000  O
  O2       1.0000 0.14270  0.82562  0.30744  Biso   1.000  O
  O3       1.0000 0.17438  0.14270  0.55744  Biso   1.000  O
  O4       1.0000 0.85730  0.17438  0.80744  Biso   1.000  O
  O5       1.0000 0.17438  0.85730  0.94256  Biso   1.000  O
  O6       1.0000 0.85730  0.82562  0.69256  Biso   1.000  O
  O7       1.0000 0.82562  0.14270  0.44256  Biso   1.000  O
  O8       1.0000 0.14270  0.17438  0.19256  Biso   1.000  O
  O9       1.0000 1.00000  0.86305  1.00000  Biso   1.000  O
  O10      1.0000 0.13695  0.00000  0.25000  Biso   1.000  O
  O11      1.0000 1.00000  0.13695  0.50000  Biso   1.000  O
  O12      1.0000 0.86305  0.00000  0.75000  Biso   1.000  O
  O13      1.0000 0.01481  0.85720  0.10098  Biso   1.000  O
  O14      1.0000 0.14279  0.01481  0.35098  Biso   1.000  O
  O15      1.0000 0.98519  0.14280  0.60098  Biso   1.000  O
  O16      1.0000 0.85721  0.98519  0.85098  Biso   1.000  O
  O17      1.0000 0.98519  0.85720  0.89902  Biso   1.000  O
  O18      1.0000 0.85721  0.01481  0.64902  Biso   1.000  O
  O19      1.0000 0.01481  0.14280  0.39902  Biso   1.000  O
  O20      1.0000 0.14279  0.98519  0.14902  Biso   1.000  O
  O21      1.0000 0.95062  0.68341  0.04977  Biso   1.000  O
  O22      1.0000 0.31659  0.95062  0.29977  Biso   1.000  O
  O23      1.0000 0.04938  0.31659  0.54977  Biso   1.000  O
  O24      1.0000 0.68341  0.04938  0.79977  Biso   1.000  O
  O25      1.0000 0.04938  0.68341  0.95023  Biso   1.000  O
  O26      1.0000 0.68341  0.95062  0.70023  Biso   1.000  O
  O27      1.0000 0.95062  0.31659  0.45023  Biso   1.000  O
  O28      1.0000 0.31659  0.04938  0.20023  Biso   1.000  O
  O29      1.0000 0.83702  0.50599  0.06666  Biso   1.000  O
  O30      1.0000 0.49400  0.83703  0.31666  Biso   1.000  O
  O31      1.0000 0.16298  0.49401  0.56666  Biso   1.000  O
  O32      1.0000 0.50600  0.16297  0.81666  Biso   1.000  O
  O33      1.0000 0.16298  0.50599  0.93334  Biso   1.000  O
  O34      1.0000 0.50600  0.83703  0.68334  Biso   1.000  O
  O35      1.0000 0.83702  0.49401  0.43334  Biso   1.000  O
  O36      1.0000 0.49400  0.16297  0.18334  Biso   1.000  O
  O37      1.0000 0.00000  0.50417  0.00000  Biso   1.000  O
  O38      1.0000 0.49582  1.00000  0.25000  Biso   1.000  O
  O39      1.0000 0.00000  0.49582  0.50000  Biso   1.000  O
  O40      1.0000 0.50418  1.00000  0.75000  Biso   1.000  O
  O41      1.0000 0.03541  0.51937  0.10051  Biso   1.000  O
  O42      1.0000 0.48063  0.03542  0.35051  Biso   1.000  O
  O43      1.0000 0.96459  0.48063  0.60051  Biso   1.000  O
  O44      1.0000 0.51937  0.96458  0.85051  Biso   1.000  O
  O45      1.0000 0.96459  0.51937  0.89949  Biso   1.000  O
  O46      1.0000 0.51937  0.03542  0.64950  Biso   1.000  O
  O47      1.0000 0.03541  0.48063  0.39949  Biso   1.000  O
  O48      1.0000 0.48063  0.96458  0.14949  Biso   1.000  O
  O49      1.0000 0.63566  0.87111  0.09870  Biso   1.000  O
  O50      1.0000 0.12889  0.63567  0.34870  Biso   1.000  O
  O51      1.0000 0.36434  0.12889  0.59870  Biso   1.000  O
  O52      1.0000 0.87111  0.36433  0.84870  Biso   1.000  O
  O53      1.0000 0.36434  0.87111  0.90130  Biso   1.000  O
  O54      1.0000 0.87111  0.63567  0.65130  Biso   1.000  O
  O55      1.0000 0.63566  0.12889  0.40130  Biso   1.000  O
  O56      1.0000 0.12889  0.36433  0.15130  Biso   1.000  O
  O57      1.0000 0.70728  0.67855  0.06919  Biso   1.000  O
  O58      1.0000 0.32145  0.70728  0.31919  Biso   1.000  O
  O59      1.0000 0.29272  0.32145  0.56919  Biso   1.000  O
  O60      1.0000 0.67855  0.29272  0.81919  Biso   1.000  O
  O61      1.0000 0.29272  0.67855  0.93081  Biso   1.000  O
  O62      1.0000 0.67855  0.70728  0.68081  Biso   1.000  O
  O63      1.0000 0.70728  0.32145  0.43081  Biso   1.000  O
  O64      1.0000 0.32145  0.29272  0.18081  Biso   1.000  O
  O65      1.0000 0.64995  0.82550  0.00022  Biso   1.000  O
  O66      1.0000 0.17450  0.64995  0.25022  Biso   1.000  O
  O67      1.0000 0.35005  0.17450  0.50022  Biso   1.000  O
  O68      1.0000 0.82550  0.35005  0.75022  Biso   1.000  O
  O69      1.0000 0.35005  0.82550  0.99978  Biso   1.000  O
  O70      1.0000 0.82550  0.64995  0.74978  Biso   1.000  O
  O71      1.0000 0.64995  0.17450  0.49978  Biso   1.000  O
  O72      1.0000 0.17450  0.35005  0.24978  Biso   1.000  O
  O73      1.0000 0.64603  0.49583  0.11035  Biso   1.000  O
  O74      1.0000 0.50417  0.64603  0.36035  Biso   1.000  O
  O75      1.0000 0.35397  0.50417  0.61035  Biso   1.000  O
  O76      1.0000 0.49584  0.35397  0.86035  Biso   1.000  O
  O77      1.0000 0.35397  0.49583  0.88965  Biso   1.000  O
  O78      1.0000 0.49583  0.64603  0.63965  Biso   1.000  O
  O79      1.0000 0.64603  0.50417  0.38965  Biso   1.000  O
  O80      1.0000 0.50416  0.35397  0.13965  Biso   1.000  O
  O81      1.0000 0.65829  0.50818  0.00994  Biso   1.000  O
  O82      1.0000 0.49182  0.65829  0.25995  Biso   1.000  O
  O83      1.0000 0.34172  0.49182  0.50994  Biso   1.000  O
  O84      1.0000 0.50818  0.34171  0.75994  Biso   1.000  O
  O85      1.0000 0.34171  0.50818  0.99006  Biso   1.000  O
  O86      1.0000 0.50818  0.65829  0.74005  Biso   1.000  O
  O87      1.0000 0.65828  0.49182  0.49006  Biso   1.000  O
  O88      1.0000 0.49182  0.34171  0.24006  Biso   1.000  O
  O89      1.0000 0.43684  0.79558  0.08944  Biso   1.000  O
  O90      1.0000 0.20441  0.43684  0.33944  Biso   1.000  O
  O91      1.0000 0.56316  0.20442  0.58944  Biso   1.000  O
  O92      1.0000 0.79559  0.56316  0.83944  Biso   1.000  O
  O93      1.0000 0.56316  0.79558  0.91056  Biso   1.000  O
  O94      1.0000 0.79559  0.43684  0.66056  Biso   1.000  O
  O95      1.0000 0.43684  0.20442  0.41056  Biso   1.000  O
  O96      1.0000 0.20441  0.56316  0.16056  Biso   1.000  O
  O97      1.0000 0.28706  0.65844  0.05808  Biso   1.000  O
  O98      1.0000 0.34156  0.28707  0.30808  Biso   1.000  O
  O99      1.0000 0.71294  0.34156  0.55808  Biso   1.000  O
  O100     1.0000 0.65844  0.71293  0.80808  Biso   1.000  O
  O101     1.0000 0.71294  0.65844  0.94192  Biso   1.000  O
  O102     1.0000 0.65844  0.28707  0.69192  Biso   1.000  O
  O103     1.0000 0.28706  0.34156  0.44192  Biso   1.000  O
  O104     1.0000 0.34156  0.71293  0.19192  Biso   1.000  O
  O105     1.0000 0.22784  0.85490  0.08140  Biso   1.000  O
  O106     1.0000 0.14511  0.22784  0.33139  Biso   1.000  O
  O107     1.0000 0.77216  0.14510  0.58140  Biso   1.000  O
  O108     1.0000 0.85489  0.77216  0.83139  Biso   1.000  O
  O109     1.0000 0.77216  0.85490  0.91860  Biso   1.000  O
  O110     1.0000 0.85489  0.22784  0.66861  Biso   1.000  O
  O111     1.0000 0.22784  0.14510  0.41860  Biso   1.000  O
  O112     1.0000 0.14511  0.77216  0.16861  Biso   1.000  O
  O113     1.0000 0.44629  0.51451  0.07599  Biso   1.000  O
  O114     1.0000 0.48550  0.44630  0.32599  Biso   1.000  O
  O115     1.0000 0.55371  0.48549  0.57599  Biso   1.000  O
  O116     1.0000 0.51450  0.55370  0.82599  Biso   1.000  O
  O117     1.0000 0.55371  0.51451  0.92401  Biso   1.000  O
  O118     1.0000 0.51450  0.44630  0.67401  Biso   1.000  O
  O119     1.0000 0.44629  0.48549  0.42401  Biso   1.000  O
  O120     1.0000 0.48550  0.55370  0.17401  Biso   1.000  O
  O121     1.0000 0.23643  0.45610  0.07499  Biso   1.000  O
  O122     1.0000 0.54390  0.23644  0.32499  Biso   1.000  O
  O123     1.0000 0.76357  0.54390  0.57499  Biso   1.000  O
  O124     1.0000 0.45610  0.76356  0.82499  Biso   1.000  O
  O125     1.0000 0.76357  0.45610  0.92501  Biso   1.000  O
  O126     1.0000 0.45610  0.23644  0.67501  Biso   1.000  O
  O127     1.0000 0.23643  0.54390  0.42501  Biso   1.000  O
  O128     1.0000 0.54390  0.76356  0.17501  Biso   1.000  O
  Si1      1.0000 0.94855  0.81395  0.05205  Biso   1.000  Si
  Si2      1.0000 0.18605  0.94855  0.30205  Biso   1.000  Si
  Si3      1.0000 0.05145  0.18605  0.55205  Biso   1.000  Si
  Si4      1.0000 0.81395  0.05145  0.80205  Biso   1.000  Si
  Si5      1.0000 0.05145  0.81395  0.94795  Biso   1.000  Si
  Si6      1.0000 0.81395  0.94855  0.69795  Biso   1.000  Si
  Si7      1.0000 0.94855  0.18605  0.44795  Biso   1.000  Si
  Si8      1.0000 0.18605  0.05145  0.19795  Biso   1.000  Si
  Si9      1.0000 0.95647  0.55335  0.05396  Biso   1.000  Si
  Si10     1.0000 0.44665  0.95647  0.30396  Biso   1.000  Si
  Si11     1.0000 0.04353  0.44665  0.55396  Biso   1.000  Si
  Si12     1.0000 0.55335  0.04353  0.80396  Biso   1.000  Si
  Si13     1.0000 0.04353  0.55335  0.94604  Biso   1.000  Si
  Si14     1.0000 0.55335  0.95647  0.69604  Biso   1.000  Si
  Si15     1.0000 0.95647  0.44665  0.44604  Biso   1.000  Si
  Si16     1.0000 0.44665  0.04353  0.19604  Biso   1.000  Si
  Si17     1.0000 0.70501  0.80644  0.05599  Biso   1.000  Si
  Si18     1.0000 0.19356  0.70502  0.30599  Biso   1.000  Si
  Si19     1.0000 0.29499  0.19356  0.55599  Biso   1.000  Si
  Si20     1.0000 0.80644  0.29498  0.80599  Biso   1.000  Si
  Si21     1.0000 0.29499  0.80644  0.94401  Biso   1.000  Si
  Si22     1.0000 0.80644  0.70501  0.69401  Biso   1.000  Si
  Si23     1.0000 0.70501  0.19356  0.44401  Biso   1.000  Si
  Si24     1.0000 0.19356  0.29498  0.19401  Biso   1.000  Si
  Si25     1.0000 0.71283  0.54829  0.06322  Biso   1.000  Si
  Si26     1.0000 0.45171  0.71283  0.31322  Biso   1.000  Si
  Si27     1.0000 0.28717  0.45171  0.56322  Biso   1.000  Si
  Si28     1.0000 0.54829  0.28717  0.81322  Biso   1.000  Si
  Si29     1.0000 0.28717  0.54829  0.93678  Biso   1.000  Si
  Si30     1.0000 0.54829  0.71283  0.68678  Biso   1.000  Si
  Si31     1.0000 0.71283  0.45171  0.43678  Biso   1.000  Si
  Si32     1.0000 0.45171  0.28717  0.18678  Biso   1.000  Si
  Si33     1.0000 0.32593  0.78448  0.05747  Biso   1.000  Si
  Si34     1.0000 0.21552  0.32593  0.30747  Biso   1.000  Si
  Si35     1.0000 0.67407  0.21552  0.55747  Biso   1.000  Si
  Si36     1.0000 0.78448  0.67407  0.80747  Biso   1.000  Si
  Si37     1.0000 0.67407  0.78448  0.94253  Biso   1.000  Si
  Si38     1.0000 0.78448  0.32593  0.69253  Biso   1.000  Si
  Si39     1.0000 0.32593  0.21552  0.44253  Biso   1.000  Si
  Si40     1.0000 0.21552  0.67407  0.19253  Biso   1.000  Si
  Si41     1.0000 0.32887  0.53409  0.05038  Biso   1.000  Si
  Si42     1.0000 0.46591  0.32887  0.30038  Biso   1.000  Si
  Si43     1.0000 0.67113  0.46591  0.55038  Biso   1.000  Si
  Si44     1.0000 0.53408  0.67113  0.80038  Biso   1.000  Si
  Si45     1.0000 0.67113  0.53409  0.94962  Biso   1.000  Si
  Si46     1.0000 0.53409  0.32887  0.69962  Biso   1.000  Si
  Si47     1.0000 0.32887  0.46591  0.44962  Biso   1.000  Si
  Si48     1.0000 0.46592  0.67113  0.19962  Biso   1.000  Si
  Si49     1.0000 0.52316  0.84924  0.12865  Biso   1.000  Si
  Si50     1.0000 0.15076  0.52316  0.37865  Biso   1.000  Si
  Si51     1.0000 0.47684  0.15076  0.62865  Biso   1.000  Si
  Si52     1.0000 0.84924  0.47684  0.87865  Biso   1.000  Si
  Si53     1.0000 0.47685  0.84924  0.87135  Biso   1.000  Si
  Si54     1.0000 0.84924  0.52316  0.62135  Biso   1.000  Si
  Si55     1.0000 0.52316  0.15076  0.37135  Biso   1.000  Si
  Si56     1.0000 0.15076  0.47684  0.12135  Biso   1.000  Si
  Si57     1.0000 0.51951  0.48049  0.12500  Biso   1.000  Si
  Si58     1.0000 0.51951  0.51951  0.37500  Biso   1.000  Si
  Si59     1.0000 0.48049  0.51951  0.62500  Biso   1.000  Si
  Si60     1.0000 0.48049  0.48049  0.87500  Biso   1.000  Si
  Si61     1.0000 0.13484  0.86516  0.12500  Biso   1.000  Si
  Si62     1.0000 0.13484  0.13484  0.37500  Biso   1.000  Si
  Si63     1.0000 0.86516  0.13484  0.62500  Biso   1.000  Si
  Si64     1.0000 0.86516  0.86516  0.87500  Biso   1.000  Si
